<routes xmlns:xsi="http://www.w3.org/2001/XMLSchema-instance" xsi:noNamespaceSchemaLocation="http://sumo.dlr.de/xsd/routes_file.xsd"><vType id="ped_pedestrian" vClass="pedestrian" />
    <person depart="20820.00" id="ped87_1" type="ped_pedestrian">
        <walk edges="798448331#3 798448331#2 798448331#1 798448331#0 554118544 554118637 554118543#2 857656083#1 857656083#0 696719657#0 696719657#1 696719657#2 -794194206#1 -846487433#1 794194252#1 696719655#4 696719655#3 696719655#2 696719655#1 794194207#1 794194207#2 794194207#3 794194207#4 -794194218#3 -794194218#4 -794194218#5 -794194226 -56425965#1 437294610#0 437294610#1 -5174019 37046202#1 37046202#0 -37046204#0 -37046204#1 -37046204#2 -37046204#3 -219264293 219264299#1 219264299#0 219264311#2 839946663#1 839946663#2 839946657#2 839946657#3 839946683#0 -33074738#1 -33074738#0 8068384#0 8068384#1 37046145#0 37046145#1 -179214464#2 839196653#4 839196653#3 239605829#3 239605829#4 839946707#3 -239606754#4 34163746#5 -54453514#4 -54453514#3 -54453514#2 -54453514#1 -54453514#0 -54453505 -54453513#2 -170051185#0 -170051183#0 -170051183#1 -170051183#2 -170051183#3 -54453516#1 -54453516#2 -54453516#3 -54453516#4 416812651 416812650 416812484#1 839196658#12 839196658#13 839196658#14 553588294#16 553588294#15 553588294#14 553588294#13 553588294#12 553588294#11" />
        <stop duration="5183.00" lane="553588294#11_0" />
        <walk edges="553588294#11 553588294#12 553588294#13 553588294#14 553588294#15 553588294#16 839196658#14 285569850#0 285569850#1 285569850#2 285569850#3 285569850#4 285569850#5 285569850#6 -41166404 -41166403 -285569852 144346474 37045721#5 37045721#6 -32518633 -37045651#1 -37045747 -37045578#0 -37045578#1 -37045578#2 -37045578#3 30707494#0 30707494#1 30707494#2 37046004#0 37046004#1 197058010#1 -197058001#9 197058001#10" />
        <stop duration="3192.00" lane="197058001#10_0" />
        <walk edges="197058001#10 -197058001#9 197058010#1 37046004#1 37046004#0 30707494#2 30707494#1 30707494#0 -37045578#3 -37045578#2 -37045578#1 -37045578#0 -37045747 -37045651#1 -32518633 -37045721#6 -37045721#5 -37045721#4 -37045721#3 -37045721#2 -37045721#1 -37045721#0 -37045749#5 -37045749#4 -37045749#3 -37045749#2 -37045749#1 -37045749#0 -181351750#12 -181351750#11 -181351750#10 -500286546 239618698#3 239618698#2 239618698#1 239618698#0 66979546#0 66979546#1 66979546#2 66979546#3 66979546#4 66979546#5 66979546#6 66979546#7 66979546#8 66979546#9 66979546#10 66979546#11 66979546#12 66979546#13 66979546#14 66979546#15 66979546#16 66979546#17 66979546#18 -168769482#0 -923184401 -132782207#3 -132782207#2 -132782207#1 -132782207#0 -923184400 132782203 552616896#3 552616896#2 -773786507#0 -773786507#1 773786507#2 -773786507#3 879896824#1 773786517#1" />
        <stop duration="7096.00" lane="773786517#1_0" />
        <walk edges="773786517#1 -773786516 -773786507#1 -773786507#0 552616896#2 552616896#3 132782203 -923184400 -132782207#0 -132782207#1 -132782207#2 -132782207#3 -923184401 -168769482#0 -168769482#1 -449185897 553552101 553545077#1 553545077#0 -6034185 -553588294#0 500286541 801424955 -801424954 -164011353#0 -8071384#0 -33074349#5 -33074349#4 -33074349#3 -33074349#2 -33074349#1 -33074349#0 -33002666#11 -33002666#10 -33002666#9 -33002666#8 -33002666#7 -33002666#6 -33002666#5 -33002666#4 -33002666#3 -33002666#2 -33002666#1 -33002666#0 -34163746#9 -34163746#8 -34163746#7 -239606818#0 239606818#1 -239606818#2 238468182#0 238468185#1 839196653#0 839196653#1 839208341#1 839208341#0 839196655#9 839208344#5 239606672#2 239606666#1 239606663 839208344#2 839369171 839369173 839369172#0 839369172#1 839208345#2 839369174#0 839466839 839369183 839369181 839369182 839196654#3 839196654#4 -37046145#0 8068384#1 8068384#0 -33074738#0 -33074738#1 839946683#0 839946657#3 839946657#2 839946663#2 839946663#1 219264311#2 219264299#0 219264299#1 -219264293 -37046204#3 -37046204#2 -37046204#1 -37046204#0 37046202#0 37046202#1 -5174019 437294610#1 437294610#0 -56425965#1 -794194226 -794194218#5 -794194218#4 -794194218#3 794194207#4 794194207#3 794194207#2 794194207#1 696719655#1 696719655#2 696719655#3 696719655#4 794194252#1 -846487433#1 -794194206#1 696719657#2 696719657#1 696719657#0 857656083#0 857656083#1 554118543#2 554118637 554118544 798448331#0 798448331#1 798448331#2 798448331#3" />
    </person>
    <person depart="22560.00" id="ped84_1" type="ped_pedestrian">
        <walk edges="843204705#1 843204705#0 843204716 843204703#2 841876972#0 841876972#1 841876960#0 841876960#1 841876960#2 841876979#0 841876979#1 876389238 871723067#0 -37046570#0 -32518917#6 -32518917#5 -32518917#4 -32518917#3 8071399#0 8071399#1 8071399#2 696656957#0 696656957#1 696656957#2 696656957#3 33002666#5 33002666#4 -33002674#0 -33002674#1 -33074508 -260985479#0 -260985479#1 33073982#2 33073982#1 33073982#0 416812651 416812650 416812476 33073983 488576822#0" />
        <stop duration="439.00" lane="488576822#0_0" />
        <walk edges="488576822#0 33073983 416812652 239619244#3 54453516#3 -54453516#2 -54453516#1 -170051183#3 -170051183#2 -170051183#1 -170051183#0 -170051185#0 -54453513#2 -54453505 -54453514#0 -54453514#1 -54453514#2 -54453514#3 -54453514#4 34163746#5 -239606754#4 839946707#3 239605829#4 239605829#3 839196653#3 839196653#4 -179214464#2 37046145#1 37046145#0 8068384#1 8068384#0 -33074738#0 -33074738#1 839946683#0 839946657#3 839946657#2 839946663#2 33074731#0 219264325#2 219264325#1 219264325#0 -219264316#1 -33074769#0 871531737#3 871531738 32518791#2 32518791#1 871531748 -34228398 -34228399#1 306313012 -245373054#1 -245373054#2 245372915#4 -245372915#5 871531749#6 871531749#7 691497775#0 691497774 691497773#3 760049062#0 37045638#1 37045638#0 -37045626#1 -297192678#1 297192677 297192679#1" />
        <stop duration="4011.00" lane="297192679#1_0" />
        <walk edges="297192679#1 -297192678#0 -297192678#1 -37045626#1 -37045638#0 -37045638#1 -760049062#0 691497773#2 691497777#1 691497777#0 691497765#9 691497765#10 691497765#11 691497769#0 691497769#1 691497771#0 37046203#0 37046202#1 691497771#2 794194228 794194233#0 794194233#1 794194233#2 794194234#3 794194234#4 840976432#0 840976432#1 794898158#1 794898161#0 794898161#1 14804909#4 14804909#3 14804909#2 14804909#1 14804909#0 8068399#1 8068399#0 -5174029#0 5174029#1 -5174029#2 -33569136#10 868475788#1 868475778#2 868475778#3 868475782#0 868475782#1 843204703#5 843204705#1" />
    </person>
    <person depart="24900.00" id="ped75_1" type="ped_pedestrian">
        <walk edges="794194208#2 696719655#1 794194207#1 794194207#2 794194207#3 794194207#4 -794194218#3 -794194218#4 -794194218#5 -794194226 -56425965#1 437294610#0 437294610#1 -5174019 37046202#1 37046202#0 -37046204#0 -37046204#1 -37046204#2 -37046204#3 -219264293 219264299#1 219264299#0 219264311#2 839946663#1 839946663#2 839946657#2 839946657#3 839946683#0 -33074738#1 -33074738#0 8068384#0 8068384#1 -37046145#0 839196654#4 839196654#3 839369182 839369181 839369183 839466839 839369174#0 839208345#2 839369172#1 839369172#0 839369173 839369171 839208344#2 239606663 239606666#1 239606672#2 839208344#5 839196655#9 839208341#0 839208341#1 839196653#1 839196653#0 238468185#1 238468182#0 -239606818#2 239606818#1 -239606818#0 -34163746#7 -34163746#8 34163746#9 239619244#0 239619244#1 33002662#0 33002662#1 33002662#2 33002662#3 33002662#4" />
        <stop duration="2263.00" lane="33002662#4_0" />
        <walk edges="33002662#4 33002662#3 -33074028#5 -33074028#4 -33074028#3 -33074028#2 -33074032#1 839196658#11 839196658#12 839196658#13 839196658#14 839196658#15 839196658#16 839196658#17 839196658#18 839196658#19 839196658#20 66978707#1 -37048657#0 37048626#0 37048626#1 -37048621 -37048725 -37048727 -461369530 97849122#0" />
        <stop duration="4146.00" lane="97849122#0_0" />
        <walk edges="97849122#0 -461369530 -37048727 -37048725 -37048621 37048626#1 37048626#0 -37048625#1 -37048625#0 37048628#0 37048628#1 -8068387#1 -8068387#0 8068383#0 8068383#1 8068383#2 8068383#3 8068383#4 8068383#5 8068383#6 33073980 416812476 416812652 239619244#3 54453516#3 -54453516#2 -54453516#1 -170051183#3 -170051183#2 -170051183#1 -170051183#0 -170051185#0 -54453513#2 -54453505 -54453514#0 -54453514#1 -54453514#2 -54453514#3 -54453514#4 34163746#5 -239606754#4 839946707#3 239605829#4 239605829#3 839196653#3 839196653#4 -179214464#2 37046145#1 37046145#0 8068384#1 8068384#0 -33074738#0 -33074738#1 839946683#0 839946657#3 839946657#2 839946663#2 839946663#1 219264311#2 219264299#0 219264299#1 -219264293 -37046204#3 -37046204#2 -37046204#1 -37046204#0 37046202#0 37046202#1 -5174019 437294610#1 437294610#0 -56425965#1 -794194226 -794194218#5 -794194218#4 -794194218#3 794194207#4 794194207#3 794194207#2 794194207#1 696719655#1 794194208#2" />
    </person>
    <person depart="26340.00" id="ped29_1" type="ped_pedestrian">
        <walk edges="170059672#1 -170059672#0 54453507#1 54453507#0 -54453506 54453528 -54453513#2 -170051185#0 -170051183#0 -170051183#1 -170051183#2 -170051183#3 -54453516#1 -54453516#2 54453516#3 239619244#3 416812652 416812476 33073980 8068383#6 8068383#5 8068383#4 8068383#3 8068383#2 8068383#1 8068383#0 -8068387#0 -8068387#1 37048628#1 37048628#0 -37048625#0 -37048625#1 37048626#0 37048626#1 -37048621 -37048725 37048727 37048730#1 37048730#0 37048734#1 37048734#0 37048650 37048642#1 37048642#0 37048656 37048658#1 37048658#0 -33301049#3 33301049#2 -5911867#2 -5911867#1 486550107" />
        <stop duration="60.00" lane="486550107_0" />
        <walk edges="486550107 -5911867#1 -5911867#2 33301049#2 -33301049#3 37048658#0 37048658#1 37048656 37048642#0 37048642#1 37048650 37048734#0 37048734#1 37048730#0 37048730#1 37048727 -37048725 -37048621 37048626#1 37048626#0 -37048625#1 -37048625#0 37048628#0 37048628#1 -8068387#1 -8068387#0 8068383#0 8068383#1 8068383#2 8068383#3 8068383#4 8068383#5 8068383#6 33073980 416812476 416812652 239619244#3 54453516#3 -54453516#2 -54453516#1 -170051183#3 -170051183#2 -170051183#1 -170051183#0 -170051185#0 -54453513#2 54453528 -54453506 54453507#0 54453507#1 -170059672#0 170059672#1" />
    </person>
    <person depart="26700.00" id="ped80_1" type="ped_pedestrian">
        <walk edges="841398014#1 841398013#1 841398005#1 841398005#0 841398002#2 841398002#1 -774607541#2 37182086#0 37182052#1 37182052#0 37182088#1 37182088#0 37182089#4 -807769729#0 840976434#1 840976434#0 794898182#2 794898182#1 794898182#0 794898176#4 794898176#3 794898176#2 794898176#1 794898176#0 794898161#2 794898161#1 794898161#0 794898160#2 794898160#1 794898160#0 794898159#1 794898159#2 794898159#3 794898159#4 794898157#1 794898157#0 794194280#1 794194280#0 794194230#1 798448330#0 -798448328 794194225#0 794194225#1 794194224 794194250#0 794194252#0 794194252#1 -846487433#1 -794194206#1 696719657#2 696719657#1 696719657#0 857656083#0 857656083#1 554118543#2 554118637 554118544 798448331#0 798448331#1 798448331#2 798448331#3" />
        <stop duration="6487.00" lane="798448331#3_0" />
        <walk edges="798448331#3 798448331#2 798448331#1 798448331#0 554118544 554118637 554118543#2 857656083#1 857656083#0 696719657#0 696719657#1 696719657#2 -794194206#1 -846487433#1 794194252#1 794194252#0 794194250#0 794194224 794194225#1 794194225#0 -798448328 798448330#0 794194230#1 794194280#0 794194280#1 794898157#0 794898157#1 794898159#4 794898159#3 794898159#2 794898159#1 794898160#0 794898160#1 794898160#2 794898161#0 794898161#1 794898161#2 794898176#0 794898176#1 794898176#2 794898176#3 794898176#4 794898182#0 794898182#1 794898182#2 840976434#0 840976434#1 -807769729#0 37182089#4 37182088#0 37182088#1 37182052#0 37182052#1 37182086#0 -774607541#2 841398002#1 841398002#2 841398005#0 841398005#1 841398013#1 841398014#1" />
    </person>
    <person depart="28680.00" id="ped48_1" type="ped_pedestrian">
        <walk edges="879077667 -879077665#0 120753282#3 120753282#2 120753282#1 868470376#0 868470375 868470374#1 868470374#0 868470373#8 868470373#7 868470373#6 868470373#5 868470373#4 868470373#3 868470373#2 868470373#1 868470373#0 794898161#2 794898161#1 794898161#0 794898158#1 840976432#1 840976432#0 794194234#4 794194234#3 794194233#2 794194233#1 794194233#0 794194228 691497771#2 37046202#1 37046203#0 37046203#1 99374474#4" />
        <stop duration="5465.00" lane="99374474#4_0" />
        <walk edges="99374474#4" />
        <stop duration="2144.00" lane="99374474#4_0" />
        <walk edges="99374474#4 37046203#1 37046203#0 -5174019 437294610#1 437294610#0 -56425965#1 -794194226 -794194218#5 -794194218#4 -794194218#3 794194207#4 794194207#3 794194207#2 794194207#1 696719655#1 696719655#2 696719655#3 696719655#4 794194252#1 -846487433#1 -794194206#1 696719657#2 696719657#1 696719657#0 857656083#0 857656083#1 554118543#2 554118637 554118544 798448331#0 798448331#1 798448331#2 798448331#3 798448331#4 -696737699#0 -696737703#2 -696737703#1 696737703#0" />
        <stop duration="4629.00" lane="696737703#0_0" />
        <walk edges="696737703#0 -696737703#1 -696737703#2 -696737699#0 798448331#4 798448331#3 798448331#2 798448331#1 798448331#0 554118544 554118637 554118543#2 857656083#1 857656083#0 696719657#0 696719657#1 696719657#2 -794194206#1 -846487433#1 794194252#1 794194252#0 794194250#0 794194224 794194225#1 794194225#0 -798448328 798448330#0 794194230#1 794194280#0 794194280#1 794898157#0 794898157#1 794898159#4 794898159#3 794898159#2 794898159#1 794898160#0 794898160#1 794898160#2 794898161#0 794898161#1 794898161#2 868470373#0 868470373#1 868470373#2 868470373#3 868470373#4 868470373#5 868470373#6 868470373#7 868470373#8 868470374#0 868470374#1 868470375 868470376#0 120753282#1 120753282#2 120753282#3 -879077665#0 879077667" />
    </person>
    <person depart="29160.00" id="ped18_1" type="ped_pedestrian">
        <walk edges="239606755#2 -239606755#0 -239606754#1 839946706#1 839196653#0 238468185#2 185941586#1 239619247 839946711#3 839196657#0 8068389#0 -33074621#0 66974620#0 839369167#0 839369167#1 871729714#0 871729714#1 871729715 871729713 845201610#2 845201610#3 839208346#0 -8071396#4 -8071396#5 -8071396#6 -32518917#0 -32518917#1 -32518917#2 -32518917#3 -32518917#4 -32518917#5 -32518917#6 -37046570#0 871723067#0 876389237 841876974#5 841876974#6 841876974#7 841876974#8 841876974#9 841876975#1 841876975#0 841876974#0 868951514#0 -41081757#0 -32518458 -113570220#5 -113570220#4 -113570220#3 -113570220#2 320895869#0 324292351 -324292356#0 -324292356#1 324292355 -33569136#5 120753282#0 120753282#1 120753282#2 120753282#3 -879077665#0 879077667" />
        <stop duration="5072.00" lane="879077667_0" />
        <walk edges="879077667 -879077665#0 120753282#3 120753282#2 120753282#1 120753282#0 -33569136#5 324292355 -324292356#1 -324292356#0 324292351 320895869#0 -113570220#2 -113570220#3 -113570220#4 -113570220#5 -32518458 -41081757#0 868951514#0 841876974#0 841876975#0 841876975#1 841876974#9 841876974#8 841876974#7 841876974#6 841876974#5 876389237 871723067#0 -37046570#0 -32518917#6 -32518917#5 -32518917#4 -32518917#3 -32518917#2 -32518917#1 -32518917#0 -8071396#6 -8071396#5 -8071396#4 839208346#0 845201610#3 845201610#2 871729713 871729715 871729714#1 871729714#0 839369167#1 839369167#0 66974620#0 -33074621#0 8068389#0 839196657#0 839946711#3 239619247 185941586#1 238468185#2 839196653#0 839946706#1 -239606754#1 -239606755#0 239606755#2" />
    </person>
    <person depart="30780.00" id="ped70_2" type="ped_pedestrian">
        <walk edges="868475760#3 868475769 868475764#5 868475774#0 37046501#3 -427837350#0 841876970#1 843204703#3 841876972#0 841876972#1 841876960#0 841876960#1 841876960#2 841876979#0 841876979#1 876389238 871723067#0 871723067#1 871723066#2 871723065#0 871723063#1 871723063#0 879822883#1 -78485628#1 868951529#1 868951530#0 108532990 108533050#0 108533050#1 108533050#2 -801424954 801424955 500286541 -553588294#0 291845491#0 291845491#1 291845491#2 208594714#0 208594714#1 498862132 891341525" />
        <stop duration="6521.00" lane="891341525_0" />
        <walk edges="891341525 498862132 208594714#1 208594714#0 291845491#2 291845491#1 291845491#0 -553588294#0 500286541 801424955 -801424954 -164011353#0 -8071384#0 -33074349#5 -33074349#4 -33074349#3 -33074349#2 -33074349#1 -33074349#0 -33002666#11 -33002666#10 -33002666#9 -33002666#8 -33002666#7 -33002666#6 -33002666#5 -33002666#4 -33002666#3 -33002666#2 -33002666#1 -33002666#0 -34163746#9 -34163746#8 -34163746#7 -239606818#0 239606818#1 -239606818#2 238468182#0 238468185#1 839196653#0 839196653#1 839208341#1 839208341#0 839196655#9 839208344#5 239606672#2 239606666#1 239606663 839208344#2 839369171 839369173 839369172#0 839369172#1 839208345#2 839369174#0 839466839 839369183 839369181 839369182 839196654#3 839196654#4 -37046145#0 -8068384#1 -8068384#0 33074738#0 33074738#1 33074738#2 8071390#0 8071390#1 8071390#2" />
        <stop duration="2328.00" lane="8071390#2_0" />
        <walk edges="8071390#2 8071390#1 8071390#0 219264308#2 219264308#1 219264308#0 33074731#1 33074731#0 219264325#2 219264325#1 219264325#0 219264316#1 219264316#0 32519425 32519424 30707497 219263582 219263580 8068517#1 8068517#0 -42915179#0 -42915179#1 -42915179#2 -42915179#3 -42915179#4 -42915179#5 -42915179#6 -42915179#7 -42915179#8 -42915179#9 -37045711#0 37045711#1 -37045711#2 37045711#3 -37045711#4 -37045711#5 -37045711#6 -37045711#7 30707494#0 30707494#1 30707494#2 37046004#0 37046004#1 197058010#1 -197058001#9 197058001#10" />
        <stop duration="2576.00" lane="197058001#10_0" />
        <walk edges="197058001#10 -197058001#9 197058010#1 37046004#1 37046004#0 30707494#2 30707494#1 30707494#0 -37045711#7 -37045711#6 -37045711#5 -37045711#4 37045711#3 -37045711#2 37045711#1 -37045711#0 -42915179#9 -42915179#8 -42915179#7 -42915179#6 -42915179#5 -42915179#4 -42915179#3 -42915179#2 -42915179#1 -42915179#0 8068517#0 8068517#1 219263580 219263582 30707497 32519424 32519425 219264316#0 219264316#1 219264325#0 219264325#1 219264325#2 33074731#0 33074731#1 219264308#0 219264308#1 219264308#2 8071390#0 8071390#1 -8071390#2 32518911#1 -179214599#0 868710165#1 868710164#2 188285126#0 188285126#1 97849242 869977311 751431965#0 751431965#1 751431965#2 751431965#3 751431965#4 751431965#5 751431965#6 751431965#7 751431965#8 751431965#9 751431965#10 751431965#11 867103255#3 867103255#2 867103250#0 868937056 868937057 868937058#0 868937058#1 868937059 868937060 868937051#1 877649830#0 877649830#1 96005236#2 96005236#1 96005236#0 37046500#1 37046500#0 -37046501#0 868475765#1 868475764#3 -868475763#0 -868475760#4 868475760#3" />
    </person>
    <person depart="30900.00" id="ped23_1" type="ped_pedestrian">
        <walk edges="872043824#0 -794898162#12 -872043822 868470373#1 868470373#0 794898161#2 794898161#1 794898161#0 794898158#1 840976432#1 840976432#0 794194234#4 794194234#3 794194233#2 794194233#1 794194233#0 794194228 691497771#2 37046202#1 37046203#0 691497771#0 691497769#1 691497769#0 691497765#11 691497765#10 691497765#9 691497765#8 32519160#0 438979058 551686157#5 551686157#4 551686157#3 551686157#2 551686157#1 551686157#0 37046824#4 37046824#3 37046824#2 37046824#1 37046824#0 37045608 257105879#1 257105879#0 257099826 150125286 37045589 400083680#1 400083680#0 37047572#3 37047572#2 37047572#1 37047572#0 37047573#2 37047573#1 37047573#0 118405136" />
        <stop duration="6003.00" lane="118405136_0" />
        <walk edges="118405136 37047573#0 37047573#1 37047573#2 37047572#0 37047572#1 37047572#2 37047572#3 400083680#0 400083680#1 37045589 150125286 257099826 257105879#0 257105879#1 37045608 37046824#0 37046824#1 37046824#2 37046824#3 37046824#4 551686157#0 -551686157#1 -551686157#2 -551686157#3 -551686157#4 -551686157#5 -438979058 282521481#1 691497765#6 696719657#5 696719657#4 696719657#3 696719657#2 696719657#1 696719657#0 857656084#2 857656084#1 857656084#0 696719656#2 550757139#1 -34210800#0 34210800#1 -34210800#2 -34210800#3 34210887#1" />
        <stop duration="6018.00" lane="34210887#1_0" />
        <walk edges="34210887#1 -34210800#3 -34210800#2 34210800#1 -34210800#0 550757139#1 696719656#2 696719655#6 696719655#5 794194252#0 794194250#0 794194224 794194225#1 794194225#0 -798448328 798448330#0 794194230#1 794194280#0 794194280#1 794898157#0 794898157#1 794898159#4 794898159#3 794898159#2 794898159#1 794898160#0 794898160#1 794898160#2 794898161#0 794898161#1 794898161#2 868470373#0 868470373#1 -872043822 -794898162#12 872043824#0" />
    </person>
    <person depart="31140.00" id="ped64_1" type="ped_pedestrian">
        <walk edges="37045676#1 268414630#8 268414630#7 268414630#6 268414630#5 268414630#4 268414630#3 268414630#2 268414630#1 268414630#0 -37045749#0 -181351750#12 -181351750#11 -181351750#10 -500286546 239618698#3 239618698#2 239618698#1 229912226 229912224#1 229912224#0 -229910781#3 -333459039#3 229910797#0 229910797#1 390112085 -8071385#11 -8071385#10 -8071385#9 -8071385#8 -8071385#7 -8071385#6 -8071385#5 -8071385#4 -8071385#3 -8071385#2 -8071385#1 -8071385#0 8068383#3 8068383#4 -553588294#17 -553588294#16 -553588294#15 -553588294#14 -553588294#13 -553588294#12 -553588294#11 -553588294#10 -553588294#9 -553588294#8 -553588294#7 -553588294#6 -553588294#5 -553588294#4 -553588294#3 -553588294#2 -553588294#1 -553588294#0 -6034185 553545077#0 553545077#1 553552101 -449185897 449185897" />
        <stop duration="1548.00" lane="449185897_0" />
        <walk edges="449185897 553552101 553545077#1 553545077#0 -6034185 -553588294#0 -553588294#1 -553588294#2 -553588294#3 -553588294#4 -553588294#5 -553588294#6 -553588294#7 -553588294#8 -553588294#9 -553588294#10 -553588294#11 -553588294#12 -553588294#13 -553588294#14 -553588294#15 -553588294#16 -553588294#17 8068383#4 8068383#3 -8071385#0 -8071385#1 -8071385#2 -8071385#3 -8071385#4 -8071385#5 -8071385#6 -8071385#7 -8071385#8 -8071385#9 -8071385#10 -8071385#11 390112085 229910797#1 229910797#0 -333459039#3 -229910781#3 229912224#0 229912224#1 229912226 239618698#1 239618698#2 239618698#3 -500286546 -181351750#10 -181351750#11 -181351750#12 -37045749#0 268414630#0 268414630#1 268414630#2 268414630#3 268414630#4 268414630#5 268414630#6 268414630#7 268414630#8 37045676#1" />
    </person>
    <person depart="32280.00" id="ped15_1" type="ped_pedestrian">
        <walk edges="449185897 -553552101 -553545077#1 -553545077#0 6034185 553588294#0 500286541 801424955 -801424954 108533050#2 108533050#1 108533050#0 108532990 868951530#0 868951529#1 -78485628#1 879822883#1 871723063#0 871723063#1 871723065#0 871723066#2 871723067#1 871723067#0 876389238 841876979#1 841876979#0 841876960#2 841876960#1 841876960#0 841876972#1 841876972#0 843204703#3 841876970#1 -427837350#0 -879837664#3 -879837664#2 -879837664#1 -879837664#0 -5174029#2 5174029#1 -181334007#3 -181334007#4 -794898162#0 -872043824#5 -872043824#4 -872043824#3 -872043824#2 -872043824#1 872043824#0" />
        <stop duration="5190.00" lane="872043824#0_0" />
        <walk edges="872043824#0 -872043824#1 -872043824#2 872043843 -34228419#4 -34228419#3 -34228419#2 271793720#4 271793720#5 472420336 282521479#0 282521479#1 37046461#1 -37046461#0 -8068396#1 -8068396#0 37046395#1 37046395#0 37046392#1 37046392#0 37046394#1 37046394#0 8068395#0 839946688#0 872801728 33074860#1 872801729 872801730#1 872801730#0 839946679 839946678#0 -839946664#8 -839946664#7 -839946664#6 -839946664#5 -839946664#4 -839946664#3 -839946664#2 839946664#1" />
        <stop duration="5800.00" lane="839946664#1_0" />
        <walk edges="839946664#1 -839946664#2 -839946664#3 -839946664#4 -839946664#5 -839946664#6 -839946664#7 -839946664#8 839946678#0 839946678#1 839946682#0 839946682#1 219264308#2 -33074738#2 -33074738#1 -33074738#0 8068384#0 8068384#1 -37046145#0 839196654#4 839196654#3 839369182 839369181 839369183 839466839 839369174#0 839208345#2 839369172#1 839369172#0 839369173 839369171 839208344#2 239606663 239606666#1 239606672#2 839208344#5 839196655#9 839208341#0 839208341#1 839196653#1 839196653#0 238468185#1 238468182#0 -239606818#2 239606818#1 -239606818#0 -34163746#7 -34163746#8 -34163746#9 -33002666#0 -33002666#1 -33002666#2 -33002666#3 -33002666#4 -33002666#5 -33002666#6 -33002666#7 -33002666#8 -33002666#9 -33002666#10 -33002666#11 -33074349#0 -33074349#1 -33074349#2 -33074349#3 -33074349#4 -33074349#5 -8071384#0 -164011353#0 -801424954 801424955 500286541 553588294#0 6034185 -553545077#0 -553545077#1 -553552101 449185897" />
    </person>
    <person depart="32820.00" id="ped53_1" type="ped_pedestrian">
        <walk edges="839208333#3 -839208333#0 -696656957#2 -696656957#1 -696656957#0 -33074621#4 -33074621#5 -78485628#0 -78485628#1 -78485628#2 -8071397#0 -8071397#1 -841876976#0 -841876976#1 -841876976#2 37046570#3 41081757#2 -41081757#1 868951514#1 868951515#0 868951513#2 41081762#1 125101224 33301053#0 33301053#1 445463375 33289737 33301052#0 33301052#1 33569133#0 33569133#1 33569133#2 33569133#3 33569133#4 33569133#5 33569133#6 269621561 37182109#2 794898183#1 840976433#0 840976433#1 343792635#1 -37182089#1 -37182089#2 -37182089#3 -37182089#4 37182057#1 37182057#0 37182081#1 37182081#0 -37182086#0 -37182086#1 -841398008#0 -841398008#1 841398009#1" />
        <stop duration="1902.00" lane="841398009#1_0" />
        <walk edges="841398009#1 -841398009#1 -841398008#1 -841398008#0 -37182086#1 -37182086#0 37182081#0 37182081#1 37182057#0 37182057#1 -37182089#4 -37182089#3 -37182089#2 -37182089#1 343792635#1 840976433#1 840976433#0 794898183#1 37182109#2 269621561 33569133#6 33569133#5 33569133#4 33569133#3 33569133#2 33569133#1 33569133#0 33301052#1 33301052#0 33289737 445463375 33301053#1 33301053#0 125101224 41081762#1 868951513#2 868951515#0 868951514#1 -41081757#1 41081757#2 37046570#3 -841876976#2 -841876976#1 -841876976#0 -8071397#1 -8071397#0 -78485628#2 -78485628#1 -78485628#0 -33074621#5 -33074621#4 -696656957#0 -696656957#1 -696656957#2 -839208333#0 839208333#3" />
    </person>
    <person depart="33600.00" id="ped46_2" type="ped_pedestrian">
        <walk edges="37182088#1 37182088#0 37182089#4 -807769729#0 840976434#1 840976434#0 794898182#2 794898182#1 472441927#1 472441927#2 -33569136#0 -33569136#1 -33569136#2 -33569136#3 -33569136#4 -33569136#5 -33569136#6 -33569136#7 -33569136#8 -32519051#0 868475777#1 868475778#0 868475778#1 868475787#0 -879837664#1 34162095#6 34162095#5 34162095#4 34162095#3 34162095#2 34162095#1 868470380#2 868475759#3 868475759#4 868475772 868475771 868475770 868884569 239783181#4 239783181#0 239783181#1 868884568 33075426#3 33075426#2 33075426#1 33075426#0 867103250#4 867103250#3 868937051#2 868937060 868937059 868937058#1 868937058#0 868937057 868937056 867103250#0 867103255#2 867103255#3 751431965#11 751431965#10 751431965#9 546667232 -33075174#1 -219267291#9 -219267291#8 845201608#0" />
        <stop duration="6150.00" lane="845201608#0_0" />
        <walk edges="845201608#0 839208338#3 868470362 868470361#4 868470361#3 868470360#1 868470358 839208339#3 185940540#3 185940540#4 185940540#5 611977371#0 611977371#1 185940379 611977373#1 611977373#0 185939817#1 185939817#0 238468184#1 839196660#1 -8068384#6 238468181#2 238468181#1 238468181#0 238468180 -33002666#1 -33002666#2 -33002666#3 -33002666#4 -33002666#5 -33002666#6 -33002666#7 -33002666#8 -33002666#9 -33002666#10 -33002666#11 -33074349#0 -33074349#1 -33074349#2 -33074349#3 -33074349#4 -33074349#5 -41081758#1 -41081758#0 -41081759#2 -41081759#1 -41081759#0 -6034075 -125101399#3 -125101399#2 565169489#0" />
        <stop duration="4232.00" lane="565169489#0_0" />
        <walk edges="565169489#0 125101399#2 125101399#3 41081760#0 41081760#1 41081760#2 41081760#3 168769480#0 168769480#1 168769480#2 168769480#3 168769480#4 33289740 33301052#0 33301052#1 33569133#0 33569133#1 33569133#2 33569133#3 33569133#4 33569133#5 794898182#2 840976434#0 840976434#1 -807769729#0 37182089#4 37182088#0 37182088#1" />
    </person>
    <person depart="33600.00" id="ped76_1" type="ped_pedestrian">
        <walk edges="34210817#5 -34210800#2 34210800#1 -34210800#0 550757139#1 696719656#2 696719655#6 696719655#5 794194252#0 794194250#0 794194224 794194225#1 794194225#0 -798448328 798448330#0 794194230#1 794194280#0 794194280#1 794898157#0 794898157#1 794898159#4 794898159#3 794898159#2 794898159#1 794898160#0 794898160#1 794898160#2 794898161#0 794898161#1 14804909#4 14804909#3 14804909#2 14804909#1 14804909#0 8068399#1 8068399#0 -5174029#0 5174029#1 -5174029#2 -33569136#10 868475788#1 868475778#2 868475778#3 868475782#0 868475782#1 843204703#5 843204705#1" />
        <stop duration="4447.00" lane="843204705#1_0" />
        <walk edges="843204705#1 843204703#5 868475782#1 868475782#0 868475778#3 868475778#2 868475788#1 -33569136#10 -5174029#2 5174029#1 -5174029#0 8068399#0 8068399#1 14804909#0 14804909#1 14804909#2 14804909#3 14804909#4 794898161#1 794898161#0 794898160#2 794898160#1 794898160#0 794898159#1 794898159#2 794898159#3 794898159#4 794898157#1 794898157#0 794194280#1 794194280#0 794194230#1 798448330#0 -798448328 794194225#0 794194225#1 794194224 794194250#0 794194252#0 696719655#5 696719655#6 696719656#2 550757139#1 -34210800#0 34210800#1 -34210800#2 34210817#5" />
    </person>
    <person depart="39480.00" id="ped20_1" type="ped_pedestrian">
        <walk edges="868475760#3 868475769 868475764#5 868475774#0 37046501#3 -427837350#0 841876970#1 843204703#3 841876972#0 841876972#1 841876960#0 841876960#1 841876960#2 841876979#0 841876979#1 876389238 871723067#0 871723067#1 871723066#2 871723065#0 871723063#1 871723063#0 879822883#1 -78485628#1 78485628#2 352704215 -352704217#0 -352704217#1 -352704217#2 -41081759#2 -550746397#2 932874632#1 -932874635#3 -932874635#2 -932874635#1 932874635#0 -164009900#1 -164009900#0 164009899#0 41081764#1" />
        <stop duration="154.00" lane="41081764#1_0" />