<?xml version="1.0" encoding="UTF-8"?>
<routes xmlns:xsi="http://www.w3.org/2001/XMLSchema-instance" xsi:noNamespaceSchemaLocation="http://sumo.dlr.de/xsd/routes_file.xsd">
<vType id="ped_pedestrian" vClass="pedestrian"/>
  <person id="ped87_1" depart="20820" type="ped_pedestrian">
     <walk from="798448331#3" to="553588294#11"/>
     <stop lane="553588294#11_0" duration="5183.000"/>
     <walk from="553588294#11" to="197058001#10"/>
     <stop lane="197058001#10_0" duration="3192.000"/>
     <walk from="197058001#10" to="773786517#1"/>
     <stop lane="773786517#1_0" duration="7096.000"/>
     <walk from="773786517#1" to="798448331#3"/>
  </person>
  <person id="ped84_1" depart="22560" type="ped_pedestrian">
     <walk from="843204705#1" to="488576822#0"/>
     <stop lane="488576822#0_0" duration="439.000"/>
     <walk from="488576822#0" to="297192679#1"/>
     <stop lane="297192679#1_0" duration="4011.000"/>
     <walk from="297192679#1" to="843204705#1"/>
  </person>
  <person id="ped75_1" depart="24900" type="ped_pedestrian">
     <walk from="794194208#2" to="33002662#4"/>
     <stop lane="33002662#4_0" duration="2263.000"/>
     <walk from="33002662#4" to="97849122#0"/>
     <stop lane="97849122#0_0" duration="4146.000"/>
     <walk from="97849122#0" to="794194208#2"/>
  </person>
  <person id="ped29_1" depart="26340" type="ped_pedestrian">
     <walk from="170059672#1" to="486550107"/>
     <stop lane="486550107_0" duration="60.000"/>
     <walk from="486550107" to="170059672#1"/>
  </person>
  <person id="ped80_1" depart="26700" type="ped_pedestrian">
     <walk from="841398014#1" to="798448331#3"/>
     <stop lane="798448331#3_0" duration="6487.000"/>
     <walk from="798448331#3" to="841398014#1"/>
  </person>
  <person id="ped48_1" depart="28680" type="ped_pedestrian">
     <walk from="879077667" to="99374474#4"/>
     <stop lane="99374474#4_0" duration="5465.000"/>
     <walk from="99374474#4" to="99374474#4"/>
     <stop lane="99374474#4_0" duration="2144.000"/>
     <walk from="99374474#4" to="696737703#0"/>
     <stop lane="696737703#0_0" duration="4629.000"/>
     <walk from="696737703#0" to="879077667"/>
  </person>
  <person id="ped18_1" depart="29160" type="ped_pedestrian">
     <walk from="239606755#2" to="879077667"/>
     <stop lane="879077667_0" duration="5072.000"/>
     <walk from="879077667" to="239606755#2"/>
  </person>
  <person id="ped70_2" depart="30780" type="ped_pedestrian">
     <walk from="868475760#3" to="891341525"/>
     <stop lane="891341525_0" duration="6521.000"/>
     <walk from="891341525" to="8071390#2"/>
     <stop lane="8071390#2_0" duration="2328.000"/>
     <walk from="8071390#2" to="197058001#10"/>
     <stop lane="197058001#10_0" duration="2576.000"/>
     <walk from="197058001#10" to="868475760#3"/>
  </person>
  <person id="ped23_1" depart="30900" type="ped_pedestrian">
     <walk from="872043824#0" to="118405136"/>
     <stop lane="118405136_0" duration="6003.000"/>
     <walk from="118405136" to="34210887#1"/>
     <stop lane="34210887#1_0" duration="6018.000"/>
     <walk from="34210887#1" to="872043824#0"/>
  </person>
  <person id="ped64_1" depart="31140" type="ped_pedestrian">
     <walk from="37045676#1" to="449185897"/>
     <stop lane="449185897_0" duration="1548.000"/>
     <walk from="449185897" to="37045676#1"/>
  </person>
  <person id="ped15_1" depart="32280" type="ped_pedestrian">
     <walk from="449185897" to="872043824#0"/>
     <stop lane="872043824#0_0" duration="5190.000"/>
     <walk from="872043824#0" to="839946664#1"/>
     <stop lane="839946664#1_0" duration="5800.000"/>
     <walk from="839946664#1" to="449185897"/>
  </person>
  <person id="ped53_1" depart="32820" type="ped_pedestrian">
     <walk from="839208333#3" to="841398009#1"/>
     <stop lane="841398009#1_0" duration="1902.000"/>
     <walk from="841398009#1" to="839208333#3"/>
  </person>
  <person id="ped46_2" depart="33600" type="ped_pedestrian">
     <walk from="37182088#1" to="845201608#0"/>
     <stop lane="845201608#0_0" duration="6150.000"/>
     <walk from="845201608#0" to="565169489#0"/>
     <stop lane="565169489#0_0" duration="4232.000"/>
     <walk from="565169489#0" to="37182088#1"/>
  </person>
  <person id="ped76_1" depart="33600" type="ped_pedestrian">
     <walk from="34210817#5" to="843204705#1"/>
     <stop lane="843204705#1_0" duration="4447.000"/>
     <walk from="843204705#1" to="34210817#5"/>
  </person>
  <person id="ped20_1" depart="39480" type="ped_pedestrian">
     <walk from="868475760#3" to="41081764#1"/>
     <stop lane="41081764#1_0" duration="154.000"/>
     <walk from="41081764#1" to="37045721#5"/>
     <stop lane="37045721#5_0" duration="2316.000"/>
     <walk from="37045721#5" to="868475760#3"/>
  </person>
  <person id="ped31_1" depart="41040" type="ped_pedestrian">
     <walk from="696737703#0" to="168769481#2"/>
     <stop lane="168769481#2_0" duration="5741.000"/>
     <walk from="168769481#2" to="33074032#2"/>
     <stop lane="33074032#2_0" duration="1208.000"/>
     <walk from="33074032#2" to="696737703#0"/>
  </person>
  <person id="ped3_1" depart="42720" type="ped_pedestrian">
     <walk from="37045568#2" to="696737717"/>
     <stop lane="696737717_0" duration="730.000"/>
     <walk from="696737717" to="879077667"/>
     <stop lane="879077667_0" duration="4772.000"/>
     <walk from="879077667" to="37045721#5"/>
     <stop lane="37045721#5_0" duration="5985.000"/>
     <walk from="37045721#5" to="37045568#2"/>
  </person>
  <person id="ped16_1" depart="42780" type="ped_pedestrian">
     <walk from="34164830#1" to="197058001#10"/>
     <stop lane="197058001#10_0" duration="5928.000"/>
     <walk from="197058001#10" to="450336957"/>
     <stop lane="450336957_0" duration="469.000"/>
     <walk from="450336957" to="449185900#1"/>
     <stop lane="449185900#1_0" duration="108.000"/>
     <walk from="449185900#1" to="34164830#1"/>
  </person>
  <person id="ped10_1" depart="43260" type="ped_pedestrian">
     <walk from="34210826#0" to="8071390#2"/>
     <stop lane="8071390#2_0" duration="6663.000"/>
     <walk from="8071390#2" to="34210826#0"/>
  </person>
  <person id="ped91_1" depart="44160" type="ped_pedestrian">
     <walk from="665163805" to="794194254#1"/>
     <stop lane="794194254#1_0" duration="5153.000"/>
     <walk from="794194254#1" to="144346763"/>
     <stop lane="144346763_0" duration="3288.000"/>
     <walk from="144346763" to="665163805"/>
  </person>
  <person id="ped59_2" depart="44280" type="ped_pedestrian">
     <walk from="845201608#0" to="33002670#6"/>
     <stop lane="33002670#6_0" duration="2124.000"/>
     <walk from="33002670#6" to="845201608#0"/>
  </person>
  <person id="ped99_1" depart="45300" type="ped_pedestrian">
     <walk from="41081759#2" to="297192679#1"/>
     <stop lane="297192679#1_0" duration="1236.000"/>
     <walk from="297192679#1" to="37045721#5"/>
     <stop lane="37045721#5_0" duration="5604.000"/>
     <walk from="37045721#5" to="41081759#2"/>
  </person>
  <person id="ped55_1" depart="45480" type="ped_pedestrian">
     <walk from="289828330" to="565169489#0"/>
     <stop lane="565169489#0_0" duration="1640.000"/>
     <walk from="565169489#0" to="33002670#6"/>
     <stop lane="33002670#6_0" duration="4140.000"/>
     <walk from="33002670#6" to="289828330"/>
  </person>
  <person id="ped72_1" depart="46320" type="ped_pedestrian">
     <walk from="466378604" to="54453516#2"/>
     <stop lane="54453516#2_0" duration="4376.000"/>
     <walk from="54453516#2" to="41081764#1"/>
     <stop lane="41081764#1_0" duration="3734.000"/>
     <walk from="41081764#1" to="466378604"/>
  </person>
  <person id="ped46_1" depart="48180" type="ped_pedestrian">
     <walk from="37182088#1" to="168769481#2"/>
     <stop lane="168769481#2_0" duration="3132.000"/>
     <walk from="168769481#2" to="33002670#6"/>
     <stop lane="33002670#6_0" duration="4908.000"/>
     <walk from="33002670#6" to="794194208#2"/>
     <stop lane="794194208#2_0" duration="779.000"/>
     <walk from="794194208#2" to="37182088#1"/>
  </person>
  <person id="ped65_1" depart="49320" type="ped_pedestrian">
     <walk from="794898193#3" to="170059672#1"/>
     <stop lane="170059672#1_0" duration="6351.000"/>
     <walk from="170059672#1" to="118405136"/>
     <stop lane="118405136_0" duration="4640.000"/>
     <walk from="118405136" to="794898193#3"/>
  </person>
  <person id="ped97_1" depart="53700" type="ped_pedestrian">
     <walk from="839208333#3" to="33074032#2"/>
     <stop lane="33074032#2_0" duration="5328.000"/>
     <walk from="33074032#2" to="8071390#2"/>
     <stop lane="8071390#2_0" duration="2792.000"/>
     <walk from="8071390#2" to="839208333#3"/>
  </person>
  <person id="ped17_1" depart="53880" type="ped_pedestrian">
     <walk from="37045639#3" to="794194208#2"/>
     <stop lane="794194208#2_0" duration="2536.000"/>
     <walk from="794194208#2" to="37045639#3"/>
  </person>
  <person id="ped63_2" depart="54120" type="ped_pedestrian">
     <walk from="229910784#0" to="843204705#1"/>
     <stop lane="843204705#1_0" duration="1149.000"/>
     <walk from="843204705#1" to="34210887#1"/>
     <stop lane="34210887#1_0" duration="6972.000"/>
     <walk from="34210887#1" to="239606755#2"/>
     <stop lane="239606755#2_0" duration="451.000"/>
     <walk from="239606755#2" to="229910784#0"/>
  </person>
  <person id="ped77_1" depart="54600" type="ped_pedestrian">
     <walk from="794194208#2" to="794898193#3"/>
     <stop lane="794898193#3_0" duration="5011.000"/>
     <walk from="794898193#3" to="794194208#2"/>
  </person>
  <person id="ped67_1" depart="55380" type="ped_pedestrian">
     <walk from="696737717" to="37045568#2"/>
     <stop lane="37045568#2_0" duration="969.000"/>
     <walk from="37045568#2" to="197058001#10"/>
     <stop lane="197058001#10_0" duration="3802.000"/>
     <walk from="197058001#10" to="696737717"/>
  </person>
  <person id="ped58_1" depart="57060" type="ped_pedestrian">
     <walk from="34210817#7" to="565169489#0"/>
     <stop lane="565169489#0_0" duration="2287.000"/>
     <walk from="565169489#0" to="34210817#7"/>
  </person>
  <person id="ped83_1" depart="57360" type="ped_pedestrian">
     <walk from="121752849#0" to="99374474#4"/>
     <stop lane="99374474#4_0" duration="4548.000"/>
     <walk from="99374474#4" to="794194254#1"/>
     <stop lane="794194254#1_0" duration="71.000"/>
     <walk from="794194254#1" to="121752849#0"/>
  </person>
  <person id="ped25_1" depart="59220" type="ped_pedestrian">
     <walk from="37048623#1" to="8071390#2"/>
     <stop lane="8071390#2_0" duration="3623.000"/>
     <walk from="8071390#2" to="798448331#3"/>
     <stop lane="798448331#3_0" duration="5768.000"/>
     <walk from="798448331#3" to="239606755#2"/>
     <stop lane="239606755#2_0" duration="5430.000"/>
     <walk from="239606755#2" to="37048623#1"/>
  </person>
  <person id="ped19_1" depart="62340" type="ped_pedestrian">
     <walk from="164028080#1" to="33002662#4"/>
     <stop lane="33002662#4_0" duration="4895.000"/>
     <walk from="33002662#4" to="179215356#0"/>
     <stop lane="179215356#0_0" duration="722.000"/>
     <walk from="179215356#0" to="121752849#0"/>
     <stop lane="121752849#0_0" duration="5576.000"/>
     <walk from="121752849#0" to="164028080#1"/>
  </person>
  <person id="ped69_1" depart="66360" type="ped_pedestrian">
     <walk from="37045676#1" to="37182088#1"/>
     <stop lane="37182088#1_0" duration="6376.000"/>
     <walk from="37182088#1" to="54453516#3"/>
     <stop lane="54453516#3_0" duration="5723.000"/>
     <walk from="54453516#3" to="37045676#1"/>
  </person>
  <person id="ped30_1" depart="70560" type="ped_pedestrian">
     <walk from="208594714#1" to="794194250#0"/>
     <stop lane="794194250#0_0" duration="3898.000"/>
     <walk from="794194250#0" to="208594714#1"/>
  </person>
  <person id="ped28_1" depart="71340" type="ped_pedestrian">
     <walk from="37045643#0" to="32224230#0"/>
     <stop lane="32224230#0_0" duration="1059.000"/>
     <walk from="32224230#0" to="839208333#3"/>
     <stop lane="839208333#3_0" duration="3482.000"/>
     <walk from="839208333#3" to="37045643#0"/>
  </person>
  <person id="ped27_1" depart="76800" type="ped_pedestrian">
     <walk from="33074769#4" to="37045749#4"/>
     <stop lane="37045749#4_0" duration="2053.000"/>
     <walk from="37045749#4" to="197058001#10"/>
     <stop lane="197058001#10_0" duration="3486.000"/>
     <walk from="197058001#10" to="33074769#4"/>
  </person>
  <person id="ped94_1" depart="79260" type="ped_pedestrian">
     <walk from="297192679#1" to="449185900#1"/>
     <stop lane="449185900#1_0" duration="6124.000"/>
     <walk from="449185900#1" to="297192679#1"/>
  </person>
  <person id="ped62_1" depart="85440" type="ped_pedestrian">
     <walk from="132782205" to="37045626#1"/>
     <stop lane="37045626#1_0" duration="2520.000"/>
     <walk from="37045626#1" to="132782205"/>
  </person>
  <person id="ped58_2" depart="94380" type="ped_pedestrian">
     <walk from="34210817#7" to="108532657#0"/>
     <stop lane="108532657#0_0" duration="320.000"/>
     <walk from="108532657#0" to="34210817#7"/>
  </person>
  <person id="ped28_2" depart="101880" type="ped_pedestrian">
     <walk from="37045643#0" to="34210817#7"/>
     <stop lane="34210817#7_0" duration="4452.000"/>
     <walk from="34210817#7" to="37045643#0"/>
  </person>
  <person id="ped36_1" depart="110160" type="ped_pedestrian">
     <walk from="34210826#0" to="794194250#0"/>
     <stop lane="794194250#0_0" duration="1277.000"/>
     <walk from="794194250#0" to="34210826#0"/>
  </person>
  <person id="ped55_2" depart="112560" type="ped_pedestrian">
     <walk from="289828330" to="794898168#3"/>
     <stop lane="794898168#3_0" duration="5576.000"/>
     <walk from="794898168#3" to="843204705#1"/>
     <stop lane="843204705#1_0" duration="1659.000"/>
     <walk from="843204705#1" to="839946664#1"/>
     <stop lane="839946664#1_0" duration="5136.000"/>
     <walk from="839946664#1" to="289828330"/>
  </person>
  <person id="ped31_2" depart="113520" type="ped_pedestrian">
     <walk from="696737703#0" to="794898168#3"/>
     <stop lane="794898168#3_0" duration="3687.000"/>
     <walk from="794898168#3" to="696737703#0"/>
  </person>
  <person id="ped33_1" depart="113520" type="ped_pedestrian">
     <walk from="794194208#2" to="845201608#0"/>
     <stop lane="845201608#0_0" duration="6090.000"/>
     <walk from="845201608#0" to="794194208#2"/>
  </person>
  <person id="ped63_3" depart="114900" type="ped_pedestrian">
     <walk from="229910784#0" to="41081759#2"/>
     <stop lane="41081759#2_0" duration="3096.000"/>
     <walk from="41081759#2" to="97849122#0"/>
     <stop lane="97849122#0_0" duration="4159.000"/>
     <walk from="97849122#0" to="34210826#0"/>
     <stop lane="34210826#0_0" duration="2247.000"/>
     <walk from="34210826#0" to="229910784#0"/>
  </person>
  <person id="ped22_1" depart="116280" type="ped_pedestrian">
     <walk from="239606755#2" to="168769481#2"/>
     <stop lane="168769481#2_0" duration="3639.000"/>
     <walk from="168769481#2" to="239606755#2"/>
  </person>
  <person id="ped76_2" depart="116640" type="ped_pedestrian">
     <walk from="34210817#5" to="504775973"/>
     <stop lane="504775973_0" duration="4916.000"/>
     <walk from="504775973" to="34210817#5"/>
  </person>
  <person id="ped39_1" depart="118020" type="ped_pedestrian">
     <walk from="878477637#1" to="449185897"/>
     <stop lane="449185897_0" duration="3697.000"/>
     <walk from="449185897" to="878477637#1"/>
  </person>
  <person id="ped27_2" depart="118980" type="ped_pedestrian">
     <walk from="33074769#4" to="32224230#0"/>
     <stop lane="32224230#0_0" duration="7139.000"/>
     <walk from="32224230#0" to="41081759#2"/>
     <stop lane="41081759#2_0" duration="494.000"/>
     <walk from="41081759#2" to="33074769#4"/>
  </person>
  <person id="ped19_2" depart="120840" type="ped_pedestrian">
     <walk from="164028080#1" to="839208333#3"/>
     <stop lane="839208333#3_0" duration="6668.000"/>
     <walk from="839208333#3" to="794194250#0"/>
     <stop lane="794194250#0_0" duration="3186.000"/>
     <walk from="794194250#0" to="164028080#1"/>
  </person>
  <person id="ped97_2" depart="124380" type="ped_pedestrian">
     <walk from="839208333#3" to="33074032#2"/>
     <stop lane="33074032#2_0" duration="839.000"/>
     <walk from="33074032#2" to="553588294#11"/>
     <stop lane="553588294#11_0" duration="6044.000"/>
     <walk from="553588294#11" to="839208333#3"/>
  </person>
  <person id="ped43_1" depart="127440" type="ped_pedestrian">
     <walk from="839946664#1" to="696737703#0"/>
     <stop lane="696737703#0_0" duration="4197.000"/>
     <walk from="696737703#0" to="132782205"/>
     <stop lane="132782205_0" duration="1015.000"/>
     <walk from="132782205" to="839946664#1"/>
  </person>
  <person id="ped46_3" depart="128220" type="ped_pedestrian">
     <walk from="37182088#1" to="97849122#0"/>
     <stop lane="97849122#0_0" duration="5162.000"/>
     <walk from="97849122#0" to="561408672#0"/>
     <stop lane="561408672#0_0" duration="5665.000"/>
     <walk from="561408672#0" to="37182088#1"/>
  </person>
  <person id="ped95_1" depart="128460" type="ped_pedestrian">
     <walk from="219264316#0" to="34210887#1"/>
     <stop lane="34210887#1_0" duration="1091.000"/>
     <walk from="34210887#1" to="774071695"/>
     <stop lane="774071695_0" duration="3532.000"/>
     <walk from="774071695" to="219264316#0"/>
  </person>
  <person id="ped66_1" depart="131040" type="ped_pedestrian">
     <walk from="34210817#5" to="239606755#2"/>
     <stop lane="239606755#2_0" duration="1340.000"/>
     <walk from="239606755#2" to="34210817#5"/>
  </person>
  <person id="ped14_1" depart="131460" type="ped_pedestrian">
     <walk from="170059672#1" to="239606755#2"/>
     <stop lane="239606755#2_0" duration="1018.000"/>
     <walk from="239606755#2" to="33002670#6"/>
     <stop lane="33002670#6_0" duration="3319.000"/>
     <walk from="33002670#6" to="170059672#1"/>
  </person>
  <person id="ped26_1" depart="131760" type="ped_pedestrian">
     <walk from="878477637#1" to="37046500#1"/>
     <stop lane="37046500#1_0" duration="5047.000"/>
     <walk from="37046500#1" to="54453516#3"/>
     <stop lane="54453516#3_0" duration="5003.000"/>
     <walk from="54453516#3" to="878477637#1"/>
  </person>
  <person id="ped64_2" depart="132300" type="ped_pedestrian">
     <walk from="37045676#1" to="208594714#1"/>
     <stop lane="208594714#1_0" duration="33.000"/>
     <walk from="208594714#1" to="37045676#1"/>
  </person>
  <person id="ped17_2" depart="132840" type="ped_pedestrian">
     <walk from="37045639#3" to="872043824#0"/>
     <stop lane="872043824#0_0" duration="7167.000"/>
     <walk from="872043824#0" to="37045639#3"/>
  </person>
  <person id="ped14_2" depart="133320" type="ped_pedestrian">
     <walk from="170059672#1" to="696737703#0"/>
     <stop lane="696737703#0_0" duration="385.000"/>
     <walk from="696737703#0" to="170059672#1"/>
  </person>
  <person id="ped38_1" depart="133500" type="ped_pedestrian">
     <walk from="37025402#1" to="773786517#1"/>
     <stop lane="773786517#1_0" duration="3045.000"/>
     <walk from="773786517#1" to="37025402#1"/>
  </person>
  <person id="ped84_2" depart="135300" type="ped_pedestrian">
     <walk from="843204705#1" to="37046461#0"/>
     <stop lane="37046461#0_0" duration="3649.000"/>
     <walk from="37046461#0" to="168769481#2"/>
     <stop lane="168769481#2_0" duration="2213.000"/>
     <walk from="168769481#2" to="843204705#1"/>
  </person>
  <person id="ped75_2" depart="137340" type="ped_pedestrian">
     <walk from="794194208#2" to="488576822#0"/>
     <stop lane="488576822#0_0" duration="1061.000"/>
     <walk from="488576822#0" to="794194208#2"/>
  </person>
  <person id="ped11_1" depart="137580" type="ped_pedestrian">
     <walk from="164028080#1" to="118405136"/>
     <stop lane="118405136_0" duration="4028.000"/>
     <walk from="118405136" to="33002662#4"/>
     <stop lane="33002662#4_0" duration="6729.000"/>
     <walk from="33002662#4" to="164028080#1"/>
  </person>
  <person id="ped67_2" depart="140760" type="ped_pedestrian">
     <walk from="696737717" to="170059672#1"/>
     <stop lane="170059672#1_0" duration="555.000"/>
     <walk from="170059672#1" to="696737717"/>
  </person>
  <person id="ped88_1" depart="141660" type="ped_pedestrian">
     <walk from="869977315" to="466378604"/>
     <stop lane="466378604_0" duration="3613.000"/>
     <walk from="466378604" to="869977315"/>
  </person>
  <person id="ped32_1" depart="142740" type="ped_pedestrian">
     <walk from="891341525" to="170059672#1"/>
     <stop lane="170059672#1_0" duration="387.000"/>
     <walk from="170059672#1" to="891341525"/>
  </person>
  <person id="ped16_2" depart="147840" type="ped_pedestrian">
     <walk from="34164830#1" to="37045749#4"/>
     <stop lane="37045749#4_0" duration="327.000"/>
     <walk from="37045749#4" to="239606818#2"/>
     <stop lane="239606818#2_0" duration="1894.000"/>
     <walk from="239606818#2" to="34164830#1"/>
  </person>
  <person id="ped37_1" depart="149400" type="ped_pedestrian">
     <walk from="179215356#0" to="794194250#0"/>
     <stop lane="794194250#0_0" duration="5053.000"/>
     <walk from="794194250#0" to="488576740#0"/>
     <stop lane="488576740#0_0" duration="5466.000"/>
     <walk from="488576740#0" to="179215356#0"/>
  </person>
  <person id="ped68_1" depart="149460" type="ped_pedestrian">
     <walk from="845201608#0" to="696737717"/>
     <stop lane="696737717_0" duration="926.000"/>
     <walk from="696737717" to="845201608#0"/>
  </person>
  <person id="ped48_2" depart="149940" type="ped_pedestrian">
     <walk from="879077667" to="197058001#10"/>
     <stop lane="197058001#10_0" duration="5067.000"/>
     <walk from="197058001#10" to="794898168#3"/>
     <stop lane="794898168#3_0" duration="1972.000"/>
     <walk from="794898168#3" to="449185900#1"/>
     <stop lane="449185900#1_0" duration="1571.000"/>
     <walk from="449185900#1" to="879077667"/>
  </person>
  <person id="ped9_1" depart="151380" type="ped_pedestrian">
     <walk from="8071384#0" to="565169489#0"/>
     <stop lane="565169489#0_0" duration="4420.000"/>
     <walk from="565169489#0" to="8071384#0"/>
  </person>
  <person id="ped44_1" depart="151380" type="ped_pedestrian">
     <walk from="8071390#2" to="843204705#1"/>
     <stop lane="843204705#1_0" duration="5105.000"/>
     <walk from="843204705#1" to="297192679#1"/>
     <stop lane="297192679#1_0" duration="5058.000"/>
     <walk from="297192679#1" to="8071390#2"/>
  </person>
  <person id="ped59_3" depart="151860" type="ped_pedestrian">
     <walk from="845201608#0" to="97849122#0"/>
     <stop lane="97849122#0_0" duration="5298.000"/>
     <walk from="97849122#0" to="144346763"/>
     <stop lane="144346763_0" duration="3076.000"/>
     <walk from="144346763" to="845201608#0"/>
  </person>
  <person id="ped48_3" depart="152400" type="ped_pedestrian">
     <walk from="879077667" to="841398014#1"/>
     <stop lane="841398014#1_0" duration="3837.000"/>
     <walk from="841398014#1" to="879077667"/>
  </person>
  <person id="ped29_2" depart="155340" type="ped_pedestrian">
     <walk from="170059672#1" to="33002670#6"/>
     <stop lane="33002670#6_0" duration="974.000"/>
     <walk from="33002670#6" to="170059672#1"/>
  </person>
  <person id="ped72_2" depart="155400" type="ped_pedestrian">
     <walk from="466378604" to="54453516#3"/>
     <stop lane="54453516#3_0" duration="1122.000"/>
     <walk from="54453516#3" to="843204705#1"/>
     <stop lane="843204705#1_0" duration="5138.000"/>
     <walk from="843204705#1" to="466378604"/>
  </person>
  <person id="ped96_1" depart="160260" type="ped_pedestrian">
     <walk from="289828330" to="774071695"/>
     <stop lane="774071695_0" duration="6796.000"/>
     <walk from="774071695" to="289828330"/>
  </person>
  <person id="ped70_3" depart="161460" type="ped_pedestrian">
     <walk from="868475760#3" to="449185897"/>
     <stop lane="449185897_0" duration="5611.000"/>
     <walk from="449185897" to="872043824#0"/>
     <stop lane="872043824#0_0" duration="6993.000"/>
     <walk from="872043824#0" to="34210887#1"/>
     <stop lane="34210887#1_0" duration="1473.000"/>
     <walk from="34210887#1" to="868475760#3"/>
  </person>
  <person id="ped98_1" depart="162720" type="ped_pedestrian">
     <walk from="197058009#1" to="839946664#1"/>
     <stop lane="839946664#1_0" duration="6418.000"/>
     <walk from="839946664#1" to="760049844"/>
     <stop lane="760049844_0" duration="6540.000"/>
     <walk from="760049844" to="197058009#1"/>
  </person>
  <person id="ped79_1" depart="167100" type="ped_pedestrian">
     <walk from="219264316#0" to="504775973"/>
     <stop lane="504775973_0" duration="5494.000"/>
     <walk from="504775973" to="219264316#0"/>
  </person>
  <person id="ped40_1" depart="169680" type="ped_pedestrian">
     <walk from="868475760#3" to="33301049#5"/>
     <stop lane="33301049#5_0" duration="2350.000"/>
     <walk from="33301049#5" to="197058001#10"/>
     <stop lane="197058001#10_0" duration="611.000"/>
     <walk from="197058001#10" to="868475760#3"/>
  </person>
  <person id="ped97_4" depart="177960" type="ped_pedestrian">
     <walk from="839208333#3" to="878477637#1"/>
     <stop lane="878477637#1_0" duration="4600.000"/>
     <walk from="878477637#1" to="34164830#1"/>
     <stop lane="34164830#1_0" duration="6535.000"/>
     <walk from="34164830#1" to="839208333#3"/>
  </person>
  <person id="ped70_4" depart="179220" type="ped_pedestrian">
     <walk from="868475760#3" to="37046461#0"/>
     <stop lane="37046461#0_0" duration="5586.000"/>
     <walk from="37046461#0" to="794194250#0"/>
     <stop lane="794194250#0_0" duration="6912.000"/>
     <walk from="794194250#0" to="843204705#1"/>
     <stop lane="843204705#1_0" duration="4973.000"/>
     <walk from="843204705#1" to="868475760#3"/>
  </person>
  <person id="ped23_3" depart="184260" type="ped_pedestrian">
     <walk from="872043824#0" to="798448331#3"/>
     <stop lane="798448331#3_0" duration="5373.000"/>
     <walk from="798448331#3" to="553588294#11"/>
     <stop lane="553588294#11_0" duration="7145.000"/>
     <walk from="553588294#11" to="872043824#0"/>
  </person>
  <person id="ped43_2" depart="187020" type="ped_pedestrian">
     <walk from="839946664#1" to="33074769#4"/>
     <stop lane="33074769#4_0" duration="7176.000"/>
     <walk from="33074769#4" to="37025402#1"/>
     <stop lane="37025402#1_0" duration="722.000"/>
     <walk from="37025402#1" to="839946664#1"/>
  </person>
  <person id="ped81_1" depart="191160" type="ped_pedestrian">
     <walk from="37045564#1" to="843204705#1"/>
     <stop lane="843204705#1_0" duration="1724.000"/>
     <walk from="843204705#1" to="37045564#1"/>
  </person>
  <person id="ped10_2" depart="191460" type="ped_pedestrian">
     <walk from="34210826#0" to="843204705#1"/>
     <stop lane="843204705#1_0" duration="1483.000"/>
     <walk from="843204705#1" to="34210826#0"/>
  </person>
  <person id="ped89_1" depart="193620" type="ped_pedestrian">
     <walk from="794194254#1" to="33301049#5"/>
     <stop lane="33301049#5_0" duration="3738.000"/>
     <walk from="33301049#5" to="794194254#1"/>
  </person>
  <person id="ped34_2" depart="194040" type="ped_pedestrian">
     <walk from="891341525" to="696737717"/>
     <stop lane="696737717_0" duration="2839.000"/>
     <walk from="696737717" to="891341525"/>
  </person>
  <person id="ped32_2" depart="195240" type="ped_pedestrian">
     <walk from="891341525" to="208594714#1"/>
     <stop lane="208594714#1_0" duration="1146.000"/>
     <walk from="208594714#1" to="891341525"/>
  </person>
  <person id="ped64_3" depart="195240" type="ped_pedestrian">
     <walk from="37045676#1" to="805160592#0"/>
     <stop lane="805160592#0_0" duration="6249.000"/>
     <walk from="805160592#0" to="932874635#3"/>
     <stop lane="932874635#3_0" duration="471.000"/>
     <walk from="932874635#3" to="37045676#1"/>
  </person>
  <person id="ped41_1" depart="195300" type="ped_pedestrian">
     <walk from="504775973" to="54453516#2"/>
     <stop lane="54453516#2_0" duration="638.000"/>
     <walk from="54453516#2" to="504775973"/>
  </person>
  <person id="ped65_2" depart="197100" type="ped_pedestrian">
     <walk from="794898193#3" to="54453516#3"/>
     <stop lane="54453516#3_0" duration="2724.000"/>
     <walk from="54453516#3" to="449185897"/>
     <stop lane="449185897_0" duration="5144.000"/>
     <walk from="449185897" to="794898193#3"/>
  </person>
  <person id="ped5_1" depart="198660" type="ped_pedestrian">
     <walk from="41081759#2" to="798448331#3"/>
     <stop lane="798448331#3_0" duration="528.000"/>
     <walk from="798448331#3" to="37045749#4"/>
     <stop lane="37045749#4_0" duration="2294.000"/>
     <walk from="37045749#4" to="41081759#2"/>
  </person>
  <person id="ped88_2" depart="199500" type="ped_pedestrian">
     <walk from="869977315" to="8071384#0"/>
     <stop lane="8071384#0_0" duration="2945.000"/>
     <walk from="8071384#0" to="450336957"/>
     <stop lane="450336957_0" duration="1514.000"/>
     <walk from="450336957" to="869977315"/>
  </person>
  <person id="ped29_4" depart="200100" type="ped_pedestrian">
     <walk from="170059672#1" to="179215356#0"/>
     <stop lane="179215356#0_0" duration="2941.000"/>
     <walk from="179215356#0" to="170059672#1"/>
  </person>
  <person id="ped96_2" depart="200580" type="ped_pedestrian">
     <walk from="289828330" to="32224230#0"/>
     <stop lane="32224230#0_0" duration="5178.000"/>
     <walk from="32224230#0" to="239606755#2"/>
     <stop lane="239606755#2_0" duration="5130.000"/>
     <walk from="239606755#2" to="289828330"/>
  </person>
  <person id="ped66_2" depart="200880" type="ped_pedestrian">
     <walk from="34210817#5" to="32224230#0"/>
     <stop lane="32224230#0_0" duration="6699.000"/>